/*--------------------------------*- C++ -*----------------------------------*\
| ========= | |
| \\ / F ield | OpenFOAM: The Open Source CFD Toolbox |
| \\ / O peration | Version: 2.4.0 |
| \\ / A nd | Web: www.OpenFOAM.org |
| \\/ M anipulation | |
\*---------------------------------------------------------------------------*/
FoamFile
{
    version 2.0;
    format ascii;
    class dictionary;
    object blockMeshDict;
}

// * * * * * * * * * * * * * * * * * * * * * * * * * * * * * * * * * * * * * //

convertToMeters 1;

vertices
(
    (-5 -5 -5)
    (15 -5 -5)
    (15  5 -5)
    (-5  5 -5)
    (-5 -5  5)
    (15 -5  5)
    (15  5  5)
    (-5  5  5)
);

blocks
(
    hex (0 1 2 3 4 5 6 7) (20 10 10) simpleGrading (1 1 1)
);

edges
(
);

boundary
(
    front
    {
        type patch;
        faces
        (
            (0 1 5 4)
        );
    }
    
    top
    {
        type patch;
        faces
        (
            (4 5 6 7)
        );
    }
    
    back
    {
        type patch;
        faces
        (
            (3 2 6 7)
        );
    }
    
    bottom
    {
        type patch;
        faces
        (
            (0 1 2 3)
        );
    }
    
    inlet
    {
        type patch;
        faces
        (
            (0 4 7 3)
        );
    }
    
    outlet
    {
        type patch;
        faces
        (
            (2 6 5 1)
        );
    }
);

// ************************************************************************* //
